output/Cargas_BT_DU02_.dss
New "Load.BT_1284_M1" bus1="UC14865.2.3.4" phases=2 conn=delta model=2 kv=0.38 kw = 585.8497943947854 pf=0.92 status=variable vmaxpu=1.5 vminpu=0.93 daily="RES_2_DU" 
New "Load.BT_1284_M2" bus1="UC14865.2.3.4" phases=2 conn=delta model=3 kv=0.38 kw = 585.8497943947854 pf=0.92 status=variable vmaxpu=1.5 vminpu=0.93 daily="RES_2_DU"
 
New "Load.BT_7585_M1" bus1="UC15172.1.4" phases=1 conn=delta model=2 kv=0.22 kw = 377.7909889087868 pf=0.92 status=variable vmaxpu=1.5 vminpu=0.93 daily="RES_2_DU" 
New "Load.BT_7585_M2" bus1="UC15172.1.4" phases=1 conn=delta model=3 kv=0.22 kw = 377.7909889087868 pf=0.92 status=variable vmaxpu=1.5 vminpu=0.93 daily="RES_2_DU"
 
New "Load.BT_1321_M1" bus1="UC15176.1.2.3.4" phases=3 conn=delta model=2 kv=0.38 kw = 0.0 pf=0.92 status=variable vmaxpu=1.5 vminpu=0.93 daily="COM_13_DU" 
New "Load.BT_1321_M2" bus1="UC15176.1.2.3.4" phases=3 conn=delta model=3 kv=0.38 kw = 0.0 pf=0.92 status=variable vmaxpu=1.5 vminpu=0.93 daily="COM_13_DU"
 
New "Load.BT_1284_M1" bus1="UC14865.3.1.4" phases=2 conn=delta model=2 kv=0.38 kw = 487.2956233751018 pf=0.92 status=variable vmaxpu=1.5 vminpu=0.93 daily="RES_2_DU" 
New "Load.BT_1284_M2" bus1="UC14865.3.1.4" phases=2 conn=delta model=3 kv=0.38 kw = 487.2956233751018 pf=0.92 status=variable vmaxpu=1.5 vminpu=0.93 daily="RES_2_DU"
 
New "Load.BT_7553_M1" bus1="UC20061.1.2.3.4" phases=3 conn=delta model=2 kv=0.38 kw = 0.0 pf=0.92 status=variable vmaxpu=1.5 vminpu=0.93 daily="RES_7_DU" 
New "Load.BT_7553_M2" bus1="UC20061.1.2.3.4" phases=3 conn=delta model=3 kv=0.38 kw = 0.0 pf=0.92 status=variable vmaxpu=1.5 vminpu=0.93 daily="RES_7_DU"
 
New "Load.BT_2523_M1" bus1="UC20136.3.4" phases=1 conn=delta model=2 kv=0.22 kw = 0.0 pf=0.92 status=variable vmaxpu=1.5 vminpu=0.93 daily="RES_3_DU" 
New "Load.BT_2523_M2" bus1="UC20136.3.4" phases=1 conn=delta model=3 kv=0.22 kw = 0.0 pf=0.92 status=variable vmaxpu=1.5 vminpu=0.93 daily="RES_3_DU"
 
New "Load.BT_1656_M1" bus1="UC1545.1.4" phases=1 conn=delta model=2 kv=0.22 kw = 0.0 pf=0.92 status=variable vmaxpu=1.5 vminpu=0.93 daily="RES_3_DU" 
New "Load.BT_1656_M2" bus1="UC1545.1.4" phases=1 conn=delta model=3 kv=0.22 kw = 0.0 pf=0.92 status=variable vmaxpu=1.5 vminpu=0.93 daily="RES_3_DU"
 
New "Load.BT_446_M1" bus1="UC16148.1.2.3.4" phases=3 conn=delta model=2 kv=0.38 kw = 0.0 pf=0.92 status=variable vmaxpu=1.5 vminpu=0.93 daily="RES_3_DU" 
New "Load.BT_446_M2" bus1="UC16148.1.2.3.4" phases=3 conn=delta model=3 kv=0.38 kw = 0.0 pf=0.92 status=variable vmaxpu=1.5 vminpu=0.93 daily="RES_3_DU"
 
New "Load.BT_7293_M1" bus1="UC20138.2.3.4" phases=2 conn=delta model=2 kv=0.38 kw = 0.0 pf=0.92 status=variable vmaxpu=1.5 vminpu=0.93 daily="RES_7_DU" 
New "Load.BT_7293_M2" bus1="UC20138.2.3.4" phases=2 conn=delta model=3 kv=0.38 kw = 0.0 pf=0.92 status=variable vmaxpu=1.5 vminpu=0.93 daily="RES_7_DU"
 
New "Load.BT_1288_M1" bus1="UC8495.1.4" phases=1 conn=delta model=2 kv=0.22 kw = 0.0 pf=0.92 status=variable vmaxpu=1.5 vminpu=0.93 daily="RES_7_DU" 
New "Load.BT_1288_M2" bus1="UC8495.1.4" phases=1 conn=delta model=3 kv=0.22 kw = 0.0 pf=0.92 status=variable vmaxpu=1.5 vminpu=0.93 daily="RES_7_DU"
 
New "Load.BT_2743_M1" bus1="UC6417.2.4" phases=1 conn=delta model=2 kv=0.22 kw = 0.0 pf=0.92 status=variable vmaxpu=1.5 vminpu=0.93 daily="RES_3_DU" 
New "Load.BT_2743_M2" bus1="UC6417.2.4" phases=1 conn=delta model=3 kv=0.22 kw = 0.0 pf=0.92 status=variable vmaxpu=1.5 vminpu=0.93 daily="RES_3_DU"
 
New "Load.BT_7794_M1" bus1="UC16133.1.4" phases=1 conn=delta model=2 kv=0.22 kw = 0.0 pf=0.92 status=variable vmaxpu=1.5 vminpu=0.93 daily="RES_7_DU" 
New "Load.BT_7794_M2" bus1="UC16133.1.4" phases=1 conn=delta model=3 kv=0.22 kw = 0.0 pf=0.92 status=variable vmaxpu=1.5 vminpu=0.93 daily="RES_7_DU"
 
New "Load.BT_660_M1" bus1="UC15632.3.4" phases=1 conn=delta model=2 kv=0.22 kw = 0.0 pf=0.92 status=variable vmaxpu=1.5 vminpu=0.93 daily="RES_3_DU" 
New "Load.BT_660_M2" bus1="UC15632.3.4" phases=1 conn=delta model=3 kv=0.22 kw = 0.0 pf=0.92 status=variable vmaxpu=1.5 vminpu=0.93 daily="RES_3_DU"
 
New "Load.BT_8598_M1" bus1="UC16137.1.2.3.4" phases=3 conn=delta model=2 kv=0.38 kw = 0.0 pf=0.92 status=variable vmaxpu=1.5 vminpu=0.93 daily="RES_3_DU" 
New "Load.BT_8598_M2" bus1="UC16137.1.2.3.4" phases=3 conn=delta model=3 kv=0.38 kw = 0.0 pf=0.92 status=variable vmaxpu=1.5 vminpu=0.93 daily="RES_3_DU"
 
New "Load.BT_8649_M1" bus1="UC16131.1.2.3.4" phases=3 conn=delta model=2 kv=0.38 kw = 0.0 pf=0.92 status=variable vmaxpu=1.5 vminpu=0.93 daily="RES_3_DU" 
New "Load.BT_8649_M2" bus1="UC16131.1.2.3.4" phases=3 conn=delta model=3 kv=0.38 kw = 0.0 pf=0.92 status=variable vmaxpu=1.5 vminpu=0.93 daily="RES_3_DU"
 
New "Load.BT_8569_M1" bus1="UC20135.1.2.4" phases=2 conn=delta model=2 kv=0.38 kw = 0.0 pf=0.92 status=variable vmaxpu=1.5 vminpu=0.93 daily="RES_3_DU" 
New "Load.BT_8569_M2" bus1="UC20135.1.2.4" phases=2 conn=delta model=3 kv=0.38 kw = 0.0 pf=0.92 status=variable vmaxpu=1.5 vminpu=0.93 daily="RES_3_DU"
 
New "Load.BT_856_M1" bus1="UC1889.3.4" phases=1 conn=delta model=2 kv=0.22 kw = 0.0 pf=0.92 status=variable vmaxpu=1.5 vminpu=0.93 daily="RES_7_DU" 
New "Load.BT_856_M2" bus1="UC1889.3.4" phases=1 conn=delta model=3 kv=0.22 kw = 0.0 pf=0.92 status=variable vmaxpu=1.5 vminpu=0.93 daily="RES_7_DU"
 
New "Load.BT_2601_M1" bus1="UC15849.2.4" phases=1 conn=delta model=2 kv=0.22 kw = 29.556869304956752 pf=0.92 status=variable vmaxpu=1.5 vminpu=0.93 daily="RES_5_DU" 
New "Load.BT_2601_M2" bus1="UC15849.2.4" phases=1 conn=delta model=3 kv=0.22 kw = 29.556869304956752 pf=0.92 status=variable vmaxpu=1.5 vminpu=0.93 daily="RES_5_DU"
 
New "Load.BT_7733_M1" bus1="UC20092.2.3.4" phases=2 conn=delta model=2 kv=0.38 kw = 480.6330823679722 pf=0.92 status=variable vmaxpu=1.5 vminpu=0.93 daily="RES_3_DU" 
New "Load.BT_7733_M2" bus1="UC20092.2.3.4" phases=2 conn=delta model=3 kv=0.38 kw = 480.6330823679722 pf=0.92 status=variable vmaxpu=1.5 vminpu=0.93 daily="RES_3_DU"
 
New "Load.BT_7733_M1" bus1="UC20093.3.1.4" phases=2 conn=delta model=2 kv=0.38 kw = 0.0 pf=0.92 status=variable vmaxpu=1.5 vminpu=0.93 daily="RES_7_DU" 
New "Load.BT_7733_M2" bus1="UC20093.3.1.4" phases=2 conn=delta model=3 kv=0.38 kw = 0.0 pf=0.92 status=variable vmaxpu=1.5 vminpu=0.93 daily="RES_7_DU"
 
New "Load.BT_7734_M1" bus1="UC20094.2.3.4" phases=2 conn=delta model=2 kv=0.38 kw = 0.0 pf=0.92 status=variable vmaxpu=1.5 vminpu=0.93 daily="RES_7_DU" 
New "Load.BT_7734_M2" bus1="UC20094.2.3.4" phases=2 conn=delta model=3 kv=0.38 kw = 0.0 pf=0.92 status=variable vmaxpu=1.5 vminpu=0.93 daily="RES_7_DU"
 
New "Load.BT_2245_M1" bus1="UC20095.1.2.4" phases=2 conn=delta model=2 kv=0.38 kw = 160.21102745599075 pf=0.92 status=variable vmaxpu=1.5 vminpu=0.93 daily="RES_3_DU" 
New "Load.BT_2245_M2" bus1="UC20095.1.2.4" phases=2 conn=delta model=3 kv=0.38 kw = 160.21102745599075 pf=0.92 status=variable vmaxpu=1.5 vminpu=0.93 daily="RES_3_DU"
 
New "Load.BT_1794_M1" bus1="UC15505.3.4" phases=1 conn=delta model=2 kv=0.22 kw = 197.10834203936702 pf=0.92 status=variable vmaxpu=1.5 vminpu=0.93 daily="RES_2_DU" 
New "Load.BT_1794_M2" bus1="UC15505.3.4" phases=1 conn=delta model=3 kv=0.22 kw = 197.10834203936702 pf=0.92 status=variable vmaxpu=1.5 vminpu=0.93 daily="RES_2_DU"
 
New "Load.BT_657_M1" bus1="UC14583.1.4" phases=1 conn=delta model=2 kv=0.22 kw = 607.7507212880482 pf=0.92 status=variable vmaxpu=1.5 vminpu=0.93 daily="RES_2_DU" 
New "Load.BT_657_M2" bus1="UC14583.1.4" phases=1 conn=delta model=3 kv=0.22 kw = 607.7507212880482 pf=0.92 status=variable vmaxpu=1.5 vminpu=0.93 daily="RES_2_DU"
 
New "Load.BT_1284_M1" bus1="UC13787.3.1.4" phases=2 conn=delta model=2 kv=0.38 kw = 509.1965502683648 pf=0.92 status=variable vmaxpu=1.5 vminpu=0.93 daily="RES_2_DU" 
New "Load.BT_1284_M2" bus1="UC13787.3.1.4" phases=2 conn=delta model=3 kv=0.38 kw = 509.1965502683648 pf=0.92 status=variable vmaxpu=1.5 vminpu=0.93 daily="RES_2_DU"
 
New "Load.BT_7306_M1" bus1="UC15143.3.4" phases=1 conn=delta model=2 kv=0.22 kw = 624.1764164579955 pf=0.92 status=variable vmaxpu=1.5 vminpu=0.93 daily="RES_2_DU" 
New "Load.BT_7306_M2" bus1="UC15143.3.4" phases=1 conn=delta model=3 kv=0.22 kw = 624.1764164579955 pf=0.92 status=variable vmaxpu=1.5 vminpu=0.93 daily="RES_2_DU"
 
New "Load.BT_7829_M1" bus1="UC15152.2.4" phases=1 conn=delta model=2 kv=0.22 kw = 876.03707573052 pf=0.92 status=variable vmaxpu=1.5 vminpu=0.93 daily="RES_2_DU" 
New "Load.BT_7829_M2" bus1="UC15152.2.4" phases=1 conn=delta model=3 kv=0.22 kw = 876.03707573052 pf=0.92 status=variable vmaxpu=1.5 vminpu=0.93 daily="RES_2_DU"
 
New "Load.BT_2405_M1" bus1="UC4970.2.3.4" phases=2 conn=delta model=2 kv=0.38 kw = 1713.8496641607676 pf=0.92 status=variable vmaxpu=1.5 vminpu=0.93 daily="RES_4_DU" 
New "Load.BT_2405_M2" bus1="UC4970.2.3.4" phases=2 conn=delta model=3 kv=0.38 kw = 1713.8496641607676 pf=0.92 status=variable vmaxpu=1.5 vminpu=0.93 daily="RES_4_DU"
 
New "Load.BT_2823_M1" bus1="UC4516.2.4" phases=1 conn=delta model=2 kv=0.22 kw = 328.513903398945 pf=0.92 status=variable vmaxpu=1.5 vminpu=0.93 daily="RES_2_DU" 
New "Load.BT_2823_M2" bus1="UC4516.2.4" phases=1 conn=delta model=3 kv=0.22 kw = 328.513903398945 pf=0.92 status=variable vmaxpu=1.5 vminpu=0.93 daily="RES_2_DU"
 
New "Load.BT_7463_M1" bus1="UC4971.2.3.4" phases=2 conn=delta model=2 kv=0.38 kw = 1121.5683750745677 pf=0.92 status=variable vmaxpu=1.5 vminpu=0.93 daily="RES_1_DU" 
New "Load.BT_7463_M2" bus1="UC4971.2.3.4" phases=2 conn=delta model=3 kv=0.38 kw = 1121.5683750745677 pf=0.92 status=variable vmaxpu=1.5 vminpu=0.93 daily="RES_1_DU"
 
New "Load.BT_2049_M1" bus1="UC4838.2.3.4" phases=2 conn=delta model=2 kv=0.38 kw = 621.5255692141857 pf=0.92 status=variable vmaxpu=1.5 vminpu=0.93 daily="RES_13_DU" 
New "Load.BT_2049_M2" bus1="UC4838.2.3.4" phases=2 conn=delta model=3 kv=0.38 kw = 621.5255692141857 pf=0.92 status=variable vmaxpu=1.5 vminpu=0.93 daily="RES_13_DU"
 
New "Load.BT_874_M1" bus1="UC13502.1.2.3.4" phases=3 conn=delta model=2 kv=0.38 kw = 5347.017683239597 pf=0.92 status=variable vmaxpu=1.5 vminpu=0.93 daily="RES_13_DU" 
New "Load.BT_874_M2" bus1="UC13502.1.2.3.4" phases=3 conn=delta model=3 kv=0.38 kw = 5347.017683239597 pf=0.92 status=variable vmaxpu=1.5 vminpu=0.93 daily="RES_13_DU"
 
New "Load.BT_893_M1" bus1="UC9729.1.2.3.4" phases=3 conn=delta model=2 kv=0.38 kw = 1659.1106316308415 pf=0.92 status=variable vmaxpu=1.5 vminpu=0.93 daily="COM_1_DU" 
New "Load.BT_893_M2" bus1="UC9729.1.2.3.4" phases=3 conn=delta model=3 kv=0.38 kw = 1659.1106316308415 pf=0.92 status=variable vmaxpu=1.5 vminpu=0.93 daily="COM_1_DU"
 
New "Load.BT_6901_M1" bus1="UC15134.3.4" phases=1 conn=delta model=2 kv=0.22 kw = 1100.5215763864658 pf=0.92 status=variable vmaxpu=1.5 vminpu=0.93 daily="RES_2_DU" 
New "Load.BT_6901_M2" bus1="UC15134.3.4" phases=1 conn=delta model=3 kv=0.22 kw = 1100.5215763864658 pf=0.92 status=variable vmaxpu=1.5 vminpu=0.93 daily="RES_2_DU"
 
New "Load.BT_2271_M1" bus1="UC3269.2.4" phases=1 conn=delta model=2 kv=0.22 kw = 98.55417101968351 pf=0.92 status=variable vmaxpu=1.5 vminpu=0.93 daily="RES_2_DU" 
New "Load.BT_2271_M2" bus1="UC3269.2.4" phases=1 conn=delta model=3 kv=0.22 kw = 98.55417101968351 pf=0.92 status=variable vmaxpu=1.5 vminpu=0.93 daily="RES_2_DU"
 
New "Load.BT_363_M1" bus1="UC8092.3.4" phases=1 conn=delta model=2 kv=0.22 kw = 1197.5079004702418 pf=0.92 status=variable vmaxpu=1.5 vminpu=0.93 daily="RES_1_DU" 
New "Load.BT_363_M2" bus1="UC8092.3.4" phases=1 conn=delta model=3 kv=0.22 kw = 1197.5079004702418 pf=0.92 status=variable vmaxpu=1.5 vminpu=0.93 daily="RES_1_DU"
 
New "Load.BT_1388_M1" bus1="UC16119.1.2.3.4" phases=3 conn=delta model=2 kv=0.38 kw = 0.0 pf=0.92 status=variable vmaxpu=1.5 vminpu=0.93 daily="RES_3_DU" 
New "Load.BT_1388_M2" bus1="UC16119.1.2.3.4" phases=3 conn=delta model=3 kv=0.38 kw = 0.0 pf=0.92 status=variable vmaxpu=1.5 vminpu=0.93 daily="RES_3_DU"
 
New "Load.BT_7601_M1" bus1="UC14406.1.4" phases=1 conn=delta model=2 kv=0.22 kw = 0.0 pf=0.92 status=variable vmaxpu=1.5 vminpu=0.93 daily="RES_3_DU" 
New "Load.BT_7601_M2" bus1="UC14406.1.4" phases=1 conn=delta model=3 kv=0.22 kw = 0.0 pf=0.92 status=variable vmaxpu=1.5 vminpu=0.93 daily="RES_3_DU"
 
New "Load.BT_984_M1" bus1="UC3585.1.2.3.4" phases=3 conn=delta model=2 kv=0.38 kw = 0.0 pf=0.92 status=variable vmaxpu=1.5 vminpu=0.93 daily="RES_3_DU" 
New "Load.BT_984_M2" bus1="UC3585.1.2.3.4" phases=3 conn=delta model=3 kv=0.38 kw = 0.0 pf=0.92 status=variable vmaxpu=1.5 vminpu=0.93 daily="RES_3_DU"
 
New "Load.BT_6510_M1" bus1="UC16127.1.4" phases=1 conn=delta model=2 kv=0.22 kw = 0.0 pf=0.92 status=variable vmaxpu=1.5 vminpu=0.93 daily="RES_7_DU" 
New "Load.BT_6510_M2" bus1="UC16127.1.4" phases=1 conn=delta model=3 kv=0.22 kw = 0.0 pf=0.92 status=variable vmaxpu=1.5 vminpu=0.93 daily="RES_7_DU"
 
New "Load.BT_2175_M1" bus1="UC20134.1.2.3.4" phases=3 conn=delta model=2 kv=0.38 kw = 0.0 pf=0.92 status=variable vmaxpu=1.5 vminpu=0.93 daily="RES_7_DU" 
New "Load.BT_2175_M2" bus1="UC20134.1.2.3.4" phases=3 conn=delta model=3 kv=0.38 kw = 0.0 pf=0.92 status=variable vmaxpu=1.5 vminpu=0.93 daily="RES_7_DU"
 
New "Load.BT_6508_M1" bus1="UC15833.1.2.4" phases=2 conn=delta model=2 kv=0.38 kw = 40.89051367459362 pf=0.92 status=variable vmaxpu=1.5 vminpu=0.93 daily="RES_1_DU" 
New "Load.BT_6508_M2" bus1="UC15833.1.2.4" phases=2 conn=delta model=3 kv=0.38 kw = 40.89051367459362 pf=0.92 status=variable vmaxpu=1.5 vminpu=0.93 daily="RES_1_DU"
 
New "Load.BT_2830_M1" bus1="UC3356.1.4" phases=1 conn=delta model=2 kv=0.22 kw = 607.7507212880482 pf=0.92 status=variable vmaxpu=1.5 vminpu=0.93 daily="RES_2_DU" 
New "Load.BT_2830_M2" bus1="UC3356.1.4" phases=1 conn=delta model=3 kv=0.22 kw = 607.7507212880482 pf=0.92 status=variable vmaxpu=1.5 vminpu=0.93 daily="RES_2_DU"
 
New "Load.BT_2830_M1" bus1="UC3356.2.4" phases=1 conn=delta model=2 kv=0.22 kw = 562.8072646270019 pf=0.92 status=variable vmaxpu=1.5 vminpu=0.93 daily="RES_12_DU" 
New "Load.BT_2830_M2" bus1="UC3356.2.4" phases=1 conn=delta model=3 kv=0.22 kw = 562.8072646270019 pf=0.92 status=variable vmaxpu=1.5 vminpu=0.93 daily="RES_12_DU"
 
New "Load.BT_7605_M1" bus1="UC11738.3.4" phases=1 conn=delta model=2 kv=0.22 kw = 351.3983350700414 pf=0.92 status=variable vmaxpu=1.5 vminpu=0.93 daily="RES_5_DU" 
New "Load.BT_7605_M2" bus1="UC11738.3.4" phases=1 conn=delta model=3 kv=0.22 kw = 351.3983350700414 pf=0.92 status=variable vmaxpu=1.5 vminpu=0.93 daily="RES_5_DU"
 
New "Load.BT_7725_M1" bus1="UC20089.3.4" phases=1 conn=delta model=2 kv=0.22 kw = 27.37615861657875 pf=0.92 status=variable vmaxpu=1.5 vminpu=0.93 daily="RES_2_DU" 
New "Load.BT_7725_M2" bus1="UC20089.3.4" phases=1 conn=delta model=3 kv=0.22 kw = 27.37615861657875 pf=0.92 status=variable vmaxpu=1.5 vminpu=0.93 daily="RES_2_DU"
 
New "Load.BT_2519_M1" bus1="UC15842.2.4" phases=1 conn=delta model=2 kv=0.22 kw = 280.3692980479838 pf=0.92 status=variable vmaxpu=1.5 vminpu=0.93 daily="RES_3_DU" 
New "Load.BT_2519_M2" bus1="UC15842.2.4" phases=1 conn=delta model=3 kv=0.22 kw = 280.3692980479838 pf=0.92 status=variable vmaxpu=1.5 vminpu=0.93 daily="RES_3_DU"
 
New "Load.BT_6668_M1" bus1="UC15843.2.3.4" phases=2 conn=delta model=2 kv=0.38 kw = 58.41501953513375 pf=0.92 status=variable vmaxpu=1.5 vminpu=0.93 daily="RES_1_DU" 
New "Load.BT_6668_M2" bus1="UC15843.2.3.4" phases=2 conn=delta model=3 kv=0.38 kw = 58.41501953513375 pf=0.92 status=variable vmaxpu=1.5 vminpu=0.93 daily="RES_1_DU"
 
New "Load.BT_7732_M1" bus1="UC20090.2.3.4" phases=2 conn=delta model=2 kv=0.38 kw = 80.9265347829676 pf=0.92 status=variable vmaxpu=1.5 vminpu=0.93 daily="RES_12_DU" 
New "Load.BT_7732_M2" bus1="UC20090.2.3.4" phases=2 conn=delta model=3 kv=0.38 kw = 80.9265347829676 pf=0.92 status=variable vmaxpu=1.5 vminpu=0.93 daily="RES_12_DU"
 
New "Load.BT_7733_M1" bus1="UC20091.2.3.4" phases=2 conn=delta model=2 kv=0.38 kw = 298.8527896390072 pf=0.92 status=variable vmaxpu=1.5 vminpu=0.93 daily="RES_5_DU" 
New "Load.BT_7733_M2" bus1="UC20091.2.3.4" phases=2 conn=delta model=3 kv=0.38 kw = 298.8527896390072 pf=0.92 status=variable vmaxpu=1.5 vminpu=0.93 daily="RES_5_DU"
 
New "Load.BT_2860_M1" bus1="UC2244.1.4" phases=1 conn=delta model=2 kv=0.22 kw = 1081.7391586323233 pf=0.92 status=variable vmaxpu=1.5 vminpu=0.93 daily="RES_13_DU" 
New "Load.BT_2860_M2" bus1="UC2244.1.4" phases=1 conn=delta model=3 kv=0.22 kw = 1081.7391586323233 pf=0.92 status=variable vmaxpu=1.5 vminpu=0.93 daily="RES_13_DU"
 
New "Load.BT_893_M1" bus1="UC9729.3.4" phases=1 conn=delta model=2 kv=0.22 kw = 366.44063895065204 pf=0.92 status=variable vmaxpu=1.5 vminpu=0.93 daily="COM_1_DU" 
New "Load.BT_893_M2" bus1="UC9729.3.4" phases=1 conn=delta model=3 kv=0.22 kw = 366.44063895065204 pf=0.92 status=variable vmaxpu=1.5 vminpu=0.93 daily="COM_1_DU"
 
New "Load.BT_893_M1" bus1="UC9729.2.4" phases=1 conn=delta model=2 kv=0.22 kw = 153.59665104650801 pf=0.92 status=variable vmaxpu=1.5 vminpu=0.93 daily="RES_10_DU" 
New "Load.BT_893_M2" bus1="UC9729.2.4" phases=1 conn=delta model=3 kv=0.22 kw = 153.59665104650801 pf=0.92 status=variable vmaxpu=1.5 vminpu=0.93 daily="RES_10_DU"
 
New "Load.BT_1939_M1" bus1="UC20043.2.3.4" phases=2 conn=delta model=2 kv=0.38 kw = 43.801853786526 pf=0.92 status=variable vmaxpu=1.5 vminpu=0.93 daily="RES_2_DU" 
New "Load.BT_1939_M2" bus1="UC20043.2.3.4" phases=2 conn=delta model=3 kv=0.38 kw = 43.801853786526 pf=0.92 status=variable vmaxpu=1.5 vminpu=0.93 daily="RES_2_DU"
 
New "Load.BT_8375_M1" bus1="UC4987.1.2.4" phases=2 conn=delta model=2 kv=0.38 kw = 219.00926893263 pf=0.92 status=variable vmaxpu=1.5 vminpu=0.93 daily="RES_2_DU" 
New "Load.BT_8375_M2" bus1="UC4987.1.2.4" phases=2 conn=delta model=3 kv=0.38 kw = 219.00926893263 pf=0.92 status=variable vmaxpu=1.5 vminpu=0.93 daily="RES_2_DU"
 
New "Load.BT_7746_M1" bus1="UC2758.3.4" phases=1 conn=delta model=2 kv=0.22 kw = 1400.9976344835798 pf=0.92 status=variable vmaxpu=1.5 vminpu=0.93 daily="RES_7_DU" 
New "Load.BT_7746_M2" bus1="UC2758.3.4" phases=1 conn=delta model=3 kv=0.22 kw = 1400.9976344835798 pf=0.92 status=variable vmaxpu=1.5 vminpu=0.93 daily="RES_7_DU"
 
New "Load.BT_830_M1" bus1="UC2488.1.4" phases=1 conn=delta model=2 kv=0.22 kw = 602.2754895647325 pf=0.92 status=variable vmaxpu=1.5 vminpu=0.93 daily="RES_2_DU" 
New "Load.BT_830_M2" bus1="UC2488.1.4" phases=1 conn=delta model=3 kv=0.22 kw = 602.2754895647325 pf=0.92 status=variable vmaxpu=1.5 vminpu=0.93 daily="RES_2_DU"
 
New "Load.BT_830_M1" bus1="UC2488.2.4" phases=1 conn=delta model=2 kv=0.22 kw = 317.5634399523135 pf=0.92 status=variable vmaxpu=1.5 vminpu=0.93 daily="RES_2_DU" 
New "Load.BT_830_M2" bus1="UC2488.2.4" phases=1 conn=delta model=3 kv=0.22 kw = 317.5634399523135 pf=0.92 status=variable vmaxpu=1.5 vminpu=0.93 daily="RES_2_DU"
 
New "Load.BT_830_M1" bus1="UC2488.3.4" phases=1 conn=delta model=2 kv=0.22 kw = 416.117610971997 pf=0.92 status=variable vmaxpu=1.5 vminpu=0.93 daily="RES_2_DU" 
New "Load.BT_830_M2" bus1="UC2488.3.4" phases=1 conn=delta model=3 kv=0.22 kw = 416.117610971997 pf=0.92 status=variable vmaxpu=1.5 vminpu=0.93 daily="RES_2_DU"
 
New "Load.BT_1284_M1" bus1="UC14865.2.3.4" phases=2 conn=delta model=2 kv=0.38 kw = 517.8597130351611 pf=0.92 status=variable vmaxpu=1.5 vminpu=0.93 daily="RES_11_DU" 
New "Load.BT_1284_M2" bus1="UC14865.2.3.4" phases=2 conn=delta model=3 kv=0.38 kw = 517.8597130351611 pf=0.92 status=variable vmaxpu=1.5 vminpu=0.93 daily="RES_11_DU"
 
New "Load.BT_7814_M1" bus1="UC15091.1.4" phases=1 conn=delta model=2 kv=0.22 kw = 350.414830292208 pf=0.92 status=variable vmaxpu=1.5 vminpu=0.93 daily="RES_2_DU" 
New "Load.BT_7814_M2" bus1="UC15091.1.4" phases=1 conn=delta model=3 kv=0.22 kw = 350.414830292208 pf=0.92 status=variable vmaxpu=1.5 vminpu=0.93 daily="RES_2_DU"
 
New "Load.BT_6653_M1" bus1="UC11683.2.4" phases=1 conn=delta model=2 kv=0.22 kw = 355.89006201552377 pf=0.92 status=variable vmaxpu=1.5 vminpu=0.93 daily="RES_2_DU" 
New "Load.BT_6653_M2" bus1="UC11683.2.4" phases=1 conn=delta model=3 kv=0.22 kw = 355.89006201552377 pf=0.92 status=variable vmaxpu=1.5 vminpu=0.93 daily="RES_2_DU"
 
New "Load.BT_6786_M1" bus1="UC9221.1.4" phases=1 conn=delta model=2 kv=0.22 kw = 646.0773433512585 pf=0.92 status=variable vmaxpu=1.5 vminpu=0.93 daily="RES_2_DU" 
New "Load.BT_6786_M2" bus1="UC9221.1.4" phases=1 conn=delta model=3 kv=0.22 kw = 646.0773433512585 pf=0.92 status=variable vmaxpu=1.5 vminpu=0.93 daily="RES_2_DU"
 
New "Load.BT_7897_M1" bus1="UC3241.3.4" phases=1 conn=delta model=2 kv=0.22 kw = 298.30845984927447 pf=0.92 status=variable vmaxpu=1.5 vminpu=0.93 daily="COM_1_DU" 
New "Load.BT_7897_M2" bus1="UC3241.3.4" phases=1 conn=delta model=3 kv=0.22 kw = 298.30845984927447 pf=0.92 status=variable vmaxpu=1.5 vminpu=0.93 daily="COM_1_DU"
 
New "Load.BT_6905_M1" bus1="UC15112.3.4" phases=1 conn=delta model=2 kv=0.22 kw = 835.3347793524125 pf=0.92 status=variable vmaxpu=1.5 vminpu=0.93 daily="RES_1_DU" 
New "Load.BT_6905_M2" bus1="UC15112.3.4" phases=1 conn=delta model=3 kv=0.22 kw = 835.3347793524125 pf=0.92 status=variable vmaxpu=1.5 vminpu=0.93 daily="RES_1_DU"
 
New "Load.BT_7836_M1" bus1="UC16108.3.4" phases=1 conn=delta model=2 kv=0.22 kw = 0.0 pf=0.92 status=variable vmaxpu=1.5 vminpu=0.93 daily="RES_7_DU" 
New "Load.BT_7836_M2" bus1="UC16108.3.4" phases=1 conn=delta model=3 kv=0.22 kw = 0.0 pf=0.92 status=variable vmaxpu=1.5 vminpu=0.93 daily="RES_7_DU"
 
New "Load.BT_2994_M1" bus1="UC20129.3.4" phases=1 conn=delta model=2 kv=0.22 kw = 0.0 pf=0.92 status=variable vmaxpu=1.5 vminpu=0.93 daily="RES_7_DU" 
New "Load.BT_2994_M2" bus1="UC20129.3.4" phases=1 conn=delta model=3 kv=0.22 kw = 0.0 pf=0.92 status=variable vmaxpu=1.5 vminpu=0.93 daily="RES_7_DU"
 
New "Load.BT_2600_M1" bus1="UC16111.2.4" phases=1 conn=delta model=2 kv=0.22 kw = 0.0 pf=0.92 status=variable vmaxpu=1.5 vminpu=0.93 daily="RES_7_DU" 
New "Load.BT_2600_M2" bus1="UC16111.2.4" phases=1 conn=delta model=3 kv=0.22 kw = 0.0 pf=0.92 status=variable vmaxpu=1.5 vminpu=0.93 daily="RES_7_DU"
 
New "Load.BT_8384_M1" bus1="UC3883.1.4" phases=1 conn=delta model=2 kv=0.22 kw = 0.0 pf=0.92 status=variable vmaxpu=1.5 vminpu=0.93 daily="COM_5_DU" 
New "Load.BT_8384_M2" bus1="UC3883.1.4" phases=1 conn=delta model=3 kv=0.22 kw = 0.0 pf=0.92 status=variable vmaxpu=1.5 vminpu=0.93 daily="COM_5_DU"
 
New "Load.BT_8384_M1" bus1="UC3883.2.4" phases=1 conn=delta model=2 kv=0.22 kw = 0.0 pf=0.92 status=variable vmaxpu=1.5 vminpu=0.93 daily="COM_5_DU" 
New "Load.BT_8384_M2" bus1="UC3883.2.4" phases=1 conn=delta model=3 kv=0.22 kw = 0.0 pf=0.92 status=variable vmaxpu=1.5 vminpu=0.93 daily="COM_5_DU"
 
New "Load.BT_2055_M1" bus1="UC4114.1.4" phases=1 conn=delta model=2 kv=0.22 kw = 0.0 pf=0.92 status=variable vmaxpu=1.5 vminpu=0.93 daily="RES_7_DU" 
New "Load.BT_2055_M2" bus1="UC4114.1.4" phases=1 conn=delta model=3 kv=0.22 kw = 0.0 pf=0.92 status=variable vmaxpu=1.5 vminpu=0.93 daily="RES_7_DU"
 
New "Load.BT_1547_M1" bus1="UC14453.3.4" phases=1 conn=delta model=2 kv=0.22 kw = 0.0 pf=0.92 status=variable vmaxpu=1.5 vminpu=0.93 daily="RES_7_DU" 
New "Load.BT_1547_M2" bus1="UC14453.3.4" phases=1 conn=delta model=3 kv=0.22 kw = 0.0 pf=0.92 status=variable vmaxpu=1.5 vminpu=0.93 daily="RES_7_DU"
 
New "Load.BT_7858_M1" bus1="UC16118.2.4" phases=1 conn=delta model=2 kv=0.22 kw = 0.0 pf=0.92 status=variable vmaxpu=1.5 vminpu=0.93 daily="RES_7_DU" 
New "Load.BT_7858_M2" bus1="UC16118.2.4" phases=1 conn=delta model=3 kv=0.22 kw = 0.0 pf=0.92 status=variable vmaxpu=1.5 vminpu=0.93 daily="RES_7_DU"
 
New "Load.BT_2598_M1" bus1="UC15828.2.4" phases=1 conn=delta model=2 kv=0.22 kw = 38.32662206321025 pf=0.92 status=variable vmaxpu=1.5 vminpu=0.93 daily="RES_2_DU" 
New "Load.BT_2598_M2" bus1="UC15828.2.4" phases=1 conn=delta model=3 kv=0.22 kw = 38.32662206321025 pf=0.92 status=variable vmaxpu=1.5 vminpu=0.93 daily="RES_2_DU"
 
New "Load.BT_1076_M1" bus1="UC5746.1.4" phases=1 conn=delta model=2 kv=0.22 kw = 118.22747721982701 pf=0.92 status=variable vmaxpu=1.5 vminpu=0.93 daily="RES_5_DU" 
New "Load.BT_1076_M2" bus1="UC5746.1.4" phases=1 conn=delta model=3 kv=0.22 kw = 118.22747721982701 pf=0.92 status=variable vmaxpu=1.5 vminpu=0.93 daily="RES_5_DU"
 
New "Load.BT_1224_M1" bus1="UC797.2.4" phases=1 conn=delta model=2 kv=0.22 kw = 520.6858392319699 pf=0.92 status=variable vmaxpu=1.5 vminpu=0.93 daily="RES_3_DU" 
New "Load.BT_1224_M2" bus1="UC797.2.4" phases=1 conn=delta model=3 kv=0.22 kw = 520.6858392319699 pf=0.92 status=variable vmaxpu=1.5 vminpu=0.93 daily="RES_3_DU"
 
New "Load.BT_2144_M1" bus1="UC20086.1.4" phases=1 conn=delta model=2 kv=0.22 kw = 1253.8280646393068 pf=0.92 status=variable vmaxpu=1.5 vminpu=0.93 daily="RES_2_DU" 
New "Load.BT_2144_M2" bus1="UC20086.1.4" phases=1 conn=delta model=3 kv=0.22 kw = 1253.8280646393068 pf=0.92 status=variable vmaxpu=1.5 vminpu=0.93 daily="RES_2_DU"
 
New "Load.BT_618_M1" bus1="UC15794.3.1.4" phases=2 conn=delta model=2 kv=0.38 kw = 43.801853786526 pf=0.92 status=variable vmaxpu=1.5 vminpu=0.93 daily="RES_2_DU" 
New "Load.BT_618_M2" bus1="UC15794.3.1.4" phases=2 conn=delta model=3 kv=0.38 kw = 43.801853786526 pf=0.92 status=variable vmaxpu=1.5 vminpu=0.93 daily="RES_2_DU"
 
New "Load.BT_7606_M1" bus1="UC11739.3.4" phases=1 conn=delta model=2 kv=0.22 kw = 673.4535019678373 pf=0.92 status=variable vmaxpu=1.5 vminpu=0.93 daily="RES_2_DU" 
New "Load.BT_7606_M2" bus1="UC11739.3.4" phases=1 conn=delta model=3 kv=0.22 kw = 673.4535019678373 pf=0.92 status=variable vmaxpu=1.5 vminpu=0.93 daily="RES_2_DU"
 
New "Load.BT_6647_M1" bus1="UC9436.1.4" phases=1 conn=delta model=2 kv=0.22 kw = 678.9287336911531 pf=0.92 status=variable vmaxpu=1.5 vminpu=0.93 daily="RES_2_DU" 
New "Load.BT_6647_M2" bus1="UC9436.1.4" phases=1 conn=delta model=3 kv=0.22 kw = 678.9287336911531 pf=0.92 status=variable vmaxpu=1.5 vminpu=0.93 daily="RES_2_DU"
 
New "Load.BT_1485_M1" bus1="UC15792.1.2.3.4" phases=3 conn=delta model=2 kv=0.38 kw = 109.504634466315 pf=0.92 status=variable vmaxpu=1.5 vminpu=0.93 daily="RES_2_DU" 
New "Load.BT_1485_M2" bus1="UC15792.1.2.3.4" phases=3 conn=delta model=3 kv=0.38 kw = 109.504634466315 pf=0.92 status=variable vmaxpu=1.5 vminpu=0.93 daily="RES_2_DU"
 
New "Load.BT_6503_M1" bus1="UC15476.1.4" phases=1 conn=delta model=2 kv=0.22 kw = 1631.6190535480935 pf=0.92 status=variable vmaxpu=1.5 vminpu=0.93 daily="RES_2_DU" 
New "Load.BT_6503_M2" bus1="UC15476.1.4" phases=1 conn=delta model=3 kv=0.22 kw = 1631.6190535480935 pf=0.92 status=variable vmaxpu=1.5 vminpu=0.93 daily="RES_2_DU"
 
New "Load.BT_7350_M1" bus1="UC20128.1.4" phases=1 conn=delta model=2 kv=0.22 kw = 0.0 pf=0.92 status=variable vmaxpu=1.5 vminpu=0.93 daily="RES_3_DU" 
New "Load.BT_7350_M2" bus1="UC20128.1.4" phases=1 conn=delta model=3 kv=0.22 kw = 0.0 pf=0.92 status=variable vmaxpu=1.5 vminpu=0.93 daily="RES_3_DU"
 
New "Load.BT_7853_M1" bus1="UC16098.2.3.4" phases=2 conn=delta model=2 kv=0.38 kw = 0.0 pf=0.92 status=variable vmaxpu=1.5 vminpu=0.93 daily="RES_7_DU" 
New "Load.BT_7853_M2" bus1="UC16098.2.3.4" phases=2 conn=delta model=3 kv=0.38 kw = 0.0 pf=0.92 status=variable vmaxpu=1.5 vminpu=0.93 daily="RES_7_DU"
 
New "Load.BT_2823_M1" bus1="UC4516.3.1.4" phases=2 conn=delta model=2 kv=0.38 kw = 0.0 pf=0.92 status=variable vmaxpu=1.5 vminpu=0.93 daily="RES_3_DU" 
New "Load.BT_2823_M2" bus1="UC4516.3.1.4" phases=2 conn=delta model=3 kv=0.38 kw = 0.0 pf=0.92 status=variable vmaxpu=1.5 vminpu=0.93 daily="RES_3_DU"
 
New "Load.BT_1088_M1" bus1="UC5634.3.4" phases=1 conn=delta model=2 kv=0.22 kw = 0.0 pf=0.92 status=variable vmaxpu=1.5 vminpu=0.93 daily="RES_3_DU" 
New "Load.BT_1088_M2" bus1="UC5634.3.4" phases=1 conn=delta model=3 kv=0.22 kw = 0.0 pf=0.92 status=variable vmaxpu=1.5 vminpu=0.93 daily="RES_3_DU"
 
New "Load.BT_6907_M1" bus1="UC10830.1.4" phases=1 conn=delta model=2 kv=0.22 kw = 0.0 pf=0.92 status=variable vmaxpu=1.5 vminpu=0.93 daily="RES_7_DU" 
New "Load.BT_6907_M2" bus1="UC10830.1.4" phases=1 conn=delta model=3 kv=0.22 kw = 0.0 pf=0.92 status=variable vmaxpu=1.5 vminpu=0.93 daily="RES_7_DU"
 
New "Load.BT_2519_M1" bus1="UC15768.1.4" phases=1 conn=delta model=2 kv=0.22 kw = 0.0 pf=0.92 status=variable vmaxpu=1.5 vminpu=0.93 daily="RES_2_DU" 
New "Load.BT_2519_M2" bus1="UC15768.1.4" phases=1 conn=delta model=3 kv=0.22 kw = 0.0 pf=0.92 status=variable vmaxpu=1.5 vminpu=0.93 daily="RES_2_DU"
 
New "Load.BT_7950_M1" bus1="UC15770.1.2.4" phases=2 conn=delta model=2 kv=0.38 kw = 27.37615861657875 pf=0.92 status=variable vmaxpu=1.5 vminpu=0.93 daily="RES_2_DU" 
New "Load.BT_7950_M2" bus1="UC15770.1.2.4" phases=2 conn=delta model=3 kv=0.38 kw = 27.37615861657875 pf=0.92 status=variable vmaxpu=1.5 vminpu=0.93 daily="RES_2_DU"
 
New "Load.BT_7736_M1" bus1="UC20080.1.2.4" phases=2 conn=delta model=2 kv=0.38 kw = 366.84052546215526 pf=0.92 status=variable vmaxpu=1.5 vminpu=0.93 daily="RES_2_DU" 
New "Load.BT_7736_M2" bus1="UC20080.1.2.4" phases=2 conn=delta model=3 kv=0.38 kw = 366.84052546215526 pf=0.92 status=variable vmaxpu=1.5 vminpu=0.93 daily="RES_2_DU"
 
New "Load.BT_7736_M1" bus1="UC20078.2.3.4" phases=2 conn=delta model=2 kv=0.38 kw = 38.32662206321025 pf=0.92 status=variable vmaxpu=1.5 vminpu=0.93 daily="RES_2_DU" 
New "Load.BT_7736_M2" bus1="UC20078.2.3.4" phases=2 conn=delta model=3 kv=0.38 kw = 38.32662206321025 pf=0.92 status=variable vmaxpu=1.5 vminpu=0.93 daily="RES_2_DU"
 
New "Load.BT_7736_M1" bus1="UC20079.2.3.4" phases=2 conn=delta model=2 kv=0.38 kw = 301.13774478236627 pf=0.92 status=variable vmaxpu=1.5 vminpu=0.93 daily="RES_2_DU" 
New "Load.BT_7736_M2" bus1="UC20079.2.3.4" phases=2 conn=delta model=3 kv=0.38 kw = 301.13774478236627 pf=0.92 status=variable vmaxpu=1.5 vminpu=0.93 daily="RES_2_DU"
 
New "Load.BT_2553_M1" bus1="UC20081.3.4" phases=1 conn=delta model=2 kv=0.22 kw = 14.855248910305761 pf=0.92 status=variable vmaxpu=1.5 vminpu=0.93 daily="RES_6_DU" 
New "Load.BT_2553_M2" bus1="UC20081.3.4" phases=1 conn=delta model=3 kv=0.22 kw = 14.855248910305761 pf=0.92 status=variable vmaxpu=1.5 vminpu=0.93 daily="RES_6_DU"
 
New "Load.BT_1328_M1" bus1="UC960.3.4" phases=1 conn=delta model=2 kv=0.22 kw = 476.34515992847025 pf=0.92 status=variable vmaxpu=1.5 vminpu=0.93 daily="RES_2_DU" 
New "Load.BT_1328_M2" bus1="UC960.3.4" phases=1 conn=delta model=3 kv=0.22 kw = 476.34515992847025 pf=0.92 status=variable vmaxpu=1.5 vminpu=0.93 daily="RES_2_DU"
 
New "Load.BT_1280_M1" bus1="UC7780.1.4" phases=1 conn=delta model=2 kv=0.22 kw = 1253.8280646393068 pf=0.92 status=variable vmaxpu=1.5 vminpu=0.93 daily="RES_2_DU" 
New "Load.BT_1280_M2" bus1="UC7780.1.4" phases=1 conn=delta model=3 kv=0.22 kw = 1253.8280646393068 pf=0.92 status=variable vmaxpu=1.5 vminpu=0.93 daily="RES_2_DU"
 
New "Load.BT_7756_M1" bus1="UC15778.1.2.3.4" phases=3 conn=delta model=2 kv=0.38 kw = 21.900926893263 pf=0.92 status=variable vmaxpu=1.5 vminpu=0.93 daily="RES_2_DU" 
New "Load.BT_7756_M2" bus1="UC15778.1.2.3.4" phases=3 conn=delta model=3 kv=0.38 kw = 21.900926893263 pf=0.92 status=variable vmaxpu=1.5 vminpu=0.93 daily="RES_2_DU"
 
New "Load.BT_7345_M1" bus1="UC4494.3.4" phases=1 conn=delta model=2 kv=0.22 kw = 772.0076729875208 pf=0.92 status=variable vmaxpu=1.5 vminpu=0.93 daily="RES_2_DU" 
New "Load.BT_7345_M2" bus1="UC4494.3.4" phases=1 conn=delta model=3 kv=0.22 kw = 772.0076729875208 pf=0.92 status=variable vmaxpu=1.5 vminpu=0.93 daily="RES_2_DU"
 
New "Load.BT_6677_M1" bus1="UC15444.3.4" phases=1 conn=delta model=2 kv=0.22 kw = 5.47523172331575 pf=0.92 status=variable vmaxpu=1.5 vminpu=0.93 daily="RES_2_DU" 
New "Load.BT_6677_M2" bus1="UC15444.3.4" phases=1 conn=delta model=3 kv=0.22 kw = 5.47523172331575 pf=0.92 status=variable vmaxpu=1.5 vminpu=0.93 daily="RES_2_DU"
 
New "Load.BT_2035_M1" bus1="UC20026.1.4" phases=1 conn=delta model=2 kv=0.22 kw = 801.4495558877494 pf=0.92 status=variable vmaxpu=1.5 vminpu=0.93 daily="RES_11_DU" 
New "Load.BT_2035_M2" bus1="UC20026.1.4" phases=1 conn=delta model=3 kv=0.22 kw = 801.4495558877494 pf=0.92 status=variable vmaxpu=1.5 vminpu=0.93 daily="RES_11_DU"
 
New "Load.BT_1901_M1" bus1="UC20027.2.3.4" phases=2 conn=delta model=2 kv=0.38 kw = 897.9380026237831 pf=0.92 status=variable vmaxpu=1.5 vminpu=0.93 daily="RES_2_DU" 
New "Load.BT_1901_M2" bus1="UC20027.2.3.4" phases=2 conn=delta model=3 kv=0.38 kw = 897.9380026237831 pf=0.92 status=variable vmaxpu=1.5 vminpu=0.93 daily="RES_2_DU"
 
New "Load.BT_7814_M1" bus1="UC16067.3.4" phases=1 conn=delta model=2 kv=0.22 kw = 0.0 pf=0.92 status=variable vmaxpu=1.5 vminpu=0.93 daily="RES_7_DU" 
New "Load.BT_7814_M2" bus1="UC16067.3.4" phases=1 conn=delta model=3 kv=0.22 kw = 0.0 pf=0.92 status=variable vmaxpu=1.5 vminpu=0.93 daily="RES_7_DU"
 
New "Load.BT_1799_M1" bus1="UC6060.1.4" phases=1 conn=delta model=2 kv=0.22 kw = 0.0 pf=0.92 status=variable vmaxpu=1.5 vminpu=0.93 daily="RES_3_DU" 
New "Load.BT_1799_M2" bus1="UC6060.1.4" phases=1 conn=delta model=3 kv=0.22 kw = 0.0 pf=0.92 status=variable vmaxpu=1.5 vminpu=0.93 daily="RES_3_DU"
 
New "Load.BT_2049_M1" bus1="UC4838.1.2.4" phases=2 conn=delta model=2 kv=0.38 kw = 0.0 pf=0.92 status=variable vmaxpu=1.5 vminpu=0.93 daily="RES_3_DU" 
New "Load.BT_2049_M2" bus1="UC4838.1.2.4" phases=2 conn=delta model=3 kv=0.38 kw = 0.0 pf=0.92 status=variable vmaxpu=1.5 vminpu=0.93 daily="RES_3_DU"
 
New "Load.BT_6674_M1" bus1="UC14778.2.4" phases=1 conn=delta model=2 kv=0.22 kw = 0.0 pf=0.92 status=variable vmaxpu=1.5 vminpu=0.93 daily="RES_3_DU" 
New "Load.BT_6674_M2" bus1="UC14778.2.4" phases=1 conn=delta model=3 kv=0.22 kw = 0.0 pf=0.92 status=variable vmaxpu=1.5 vminpu=0.93 daily="RES_3_DU"
 
New "Load.BT_3082_M1" bus1="UC3698.2.4" phases=1 conn=delta model=2 kv=0.22 kw = 0.0 pf=0.92 status=variable vmaxpu=1.5 vminpu=0.93 daily="RES_3_DU" 
New "Load.BT_3082_M2" bus1="UC3698.2.4" phases=1 conn=delta model=3 kv=0.22 kw = 0.0 pf=0.92 status=variable vmaxpu=1.5 vminpu=0.93 daily="RES_3_DU"
 
New "Load.BT_2055_M1" bus1="UC4114.3.4" phases=1 conn=delta model=2 kv=0.22 kw = 0.0 pf=0.92 status=variable vmaxpu=1.5 vminpu=0.93 daily="RES_3_DU" 
New "Load.BT_2055_M2" bus1="UC4114.3.4" phases=1 conn=delta model=3 kv=0.22 kw = 0.0 pf=0.92 status=variable vmaxpu=1.5 vminpu=0.93 daily="RES_3_DU"
 
New "Load.BT_1061_M1" bus1="UC16077.3.4" phases=1 conn=delta model=2 kv=0.22 kw = 0.0 pf=0.92 status=variable vmaxpu=1.5 vminpu=0.93 daily="RES_3_DU" 
New "Load.BT_1061_M2" bus1="UC16077.3.4" phases=1 conn=delta model=3 kv=0.22 kw = 0.0 pf=0.92 status=variable vmaxpu=1.5 vminpu=0.93 daily="RES_3_DU"
 
New "Load.BT_7970_M1" bus1="UC15759.2.3.4" phases=2 conn=delta model=2 kv=0.38 kw = 131.405561359578 pf=0.92 status=variable vmaxpu=1.5 vminpu=0.93 daily="RES_2_DU" 
New "Load.BT_7970_M2" bus1="UC15759.2.3.4" phases=2 conn=delta model=3 kv=0.38 kw = 131.405561359578 pf=0.92 status=variable vmaxpu=1.5 vminpu=0.93 daily="RES_2_DU"
 
New "Load.BT_7948_M1" bus1="UC15766.1.2.3.4" phases=3 conn=delta model=2 kv=0.38 kw = 481.82039165178605 pf=0.92 status=variable vmaxpu=1.5 vminpu=0.93 daily="RES_2_DU" 
New "Load.BT_7948_M2" bus1="UC15766.1.2.3.4" phases=3 conn=delta model=3 kv=0.38 kw = 481.82039165178605 pf=0.92 status=variable vmaxpu=1.5 vminpu=0.93 daily="RES_2_DU"
 
New "Load.BT_8518_M1" bus1="UC20077.3.4" phases=1 conn=delta model=2 kv=0.22 kw = 65.702780679789 pf=0.92 status=variable vmaxpu=1.5 vminpu=0.93 daily="RES_2_DU" 
New "Load.BT_8518_M2" bus1="UC20077.3.4" phases=1 conn=delta model=3 kv=0.22 kw = 65.702780679789 pf=0.92 status=variable vmaxpu=1.5 vminpu=0.93 daily="RES_2_DU"
 
New "Load.BT_7756_M1" bus1="UC15767.3.4" phases=1 conn=delta model=2 kv=0.22 kw = 49.277085509841754 pf=0.92 status=variable vmaxpu=1.5 vminpu=0.93 daily="RES_2_DU" 
New "Load.BT_7756_M2" bus1="UC15767.3.4" phases=1 conn=delta model=3 kv=0.22 kw = 49.277085509841754 pf=0.92 status=variable vmaxpu=1.5 vminpu=0.93 daily="RES_2_DU"
 
New "Load.BT_7790_M1" bus1="UC15434.3.4" phases=1 conn=delta model=2 kv=0.22 kw = 930.7893929636775 pf=0.92 status=variable vmaxpu=1.5 vminpu=0.93 daily="RES_2_DU" 
New "Load.BT_7790_M2" bus1="UC15434.3.4" phases=1 conn=delta model=3 kv=0.22 kw = 930.7893929636775 pf=0.92 status=variable vmaxpu=1.5 vminpu=0.93 daily="RES_2_DU"
 
New "Load.BT_2544_M1" bus1="UC4853.1.2.4" phases=2 conn=delta model=2 kv=0.38 kw = 536.5727088849435 pf=0.92 status=variable vmaxpu=1.5 vminpu=0.93 daily="RES_2_DU" 
New "Load.BT_2544_M2" bus1="UC4853.1.2.4" phases=2 conn=delta model=3 kv=0.38 kw = 536.5727088849435 pf=0.92 status=variable vmaxpu=1.5 vminpu=0.93 daily="RES_2_DU"
 
New "Load.BT_7743_M1" bus1="UC10804.1.4" phases=1 conn=delta model=2 kv=0.22 kw = 887.9082969340329 pf=0.92 status=variable vmaxpu=1.5 vminpu=0.93 daily="RES_1_DU" 
New "Load.BT_7743_M2" bus1="UC10804.1.4" phases=1 conn=delta model=3 kv=0.22 kw = 887.9082969340329 pf=0.92 status=variable vmaxpu=1.5 vminpu=0.93 daily="RES_1_DU"
 
New "Load.BT_7817_M1" bus1="UC15439.2.4" phases=1 conn=delta model=2 kv=0.22 kw = 1096.784802644729 pf=0.92 status=variable vmaxpu=1.5 vminpu=0.93 daily="RES_8_DU" 
New "Load.BT_7817_M2" bus1="UC15439.2.4" phases=1 conn=delta model=3 kv=0.22 kw = 1096.784802644729 pf=0.92 status=variable vmaxpu=1.5 vminpu=0.93 daily="RES_8_DU"
 
New "Load.BT_2147_M1" bus1="UC20024.3.1.4" phases=2 conn=delta model=2 kv=0.38 kw = 191.63311031605124 pf=0.92 status=variable vmaxpu=1.5 vminpu=0.93 daily="RES_2_DU" 
New "Load.BT_2147_M2" bus1="UC20024.3.1.4" phases=2 conn=delta model=3 kv=0.38 kw = 191.63311031605124 pf=0.92 status=variable vmaxpu=1.5 vminpu=0.93 daily="RES_2_DU"
 
New "Load.BT_7463_M1" bus1="UC4971.2.3.4" phases=2 conn=delta model=2 kv=0.38 kw = 1244.2399160983489 pf=0.92 status=variable vmaxpu=1.5 vminpu=0.93 daily="RES_1_DU" 
New "Load.BT_7463_M2" bus1="UC4971.2.3.4" phases=2 conn=delta model=3 kv=0.38 kw = 1244.2399160983489 pf=0.92 status=variable vmaxpu=1.5 vminpu=0.93 daily="RES_1_DU"
 
New "Load.BT_1561_M1" bus1="UC14577.2.4" phases=1 conn=delta model=2 kv=0.22 kw = 870.5618440072043 pf=0.92 status=variable vmaxpu=1.5 vminpu=0.93 daily="RES_2_DU" 
New "Load.BT_1561_M2" bus1="UC14577.2.4" phases=1 conn=delta model=3 kv=0.22 kw = 870.5618440072043 pf=0.92 status=variable vmaxpu=1.5 vminpu=0.93 daily="RES_2_DU"
 
New "Load.BT_2266_M1" bus1="UC4027.3.4" phases=1 conn=delta model=2 kv=0.22 kw = 150.99564017062042 pf=0.92 status=variable vmaxpu=1.5 vminpu=0.93 daily="COM_1_DU" 
New "Load.BT_2266_M2" bus1="UC4027.3.4" phases=1 conn=delta model=3 kv=0.22 kw = 150.99564017062042 pf=0.92 status=variable vmaxpu=1.5 vminpu=0.93 daily="COM_1_DU"
 
New "Load.BT_8289_M1" bus1="UC20019.1.4" phases=1 conn=delta model=2 kv=0.22 kw = 678.9287336911531 pf=0.92 status=variable vmaxpu=1.5 vminpu=0.93 daily="RES_2_DU" 
New "Load.BT_8289_M2" bus1="UC20019.1.4" phases=1 conn=delta model=3 kv=0.22 kw = 678.9287336911531 pf=0.92 status=variable vmaxpu=1.5 vminpu=0.93 daily="RES_2_DU"
 
New "Load.BT_3070_M1" bus1="UC20020.1.2.4" phases=2 conn=delta model=2 kv=0.38 kw = 766.532441264205 pf=0.92 status=variable vmaxpu=1.5 vminpu=0.93 daily="RES_2_DU" 
New "Load.BT_3070_M2" bus1="UC20020.1.2.4" phases=2 conn=delta model=3 kv=0.38 kw = 766.532441264205 pf=0.92 status=variable vmaxpu=1.5 vminpu=0.93 daily="RES_2_DU"
 
New "Load.BT_8375_M1" bus1="UC4987.3.1.4" phases=2 conn=delta model=2 kv=0.38 kw = 427.06807441862856 pf=0.92 status=variable vmaxpu=1.5 vminpu=0.93 daily="RES_2_DU" 
New "Load.BT_8375_M2" bus1="UC4987.3.1.4" phases=2 conn=delta model=3 kv=0.38 kw = 427.06807441862856 pf=0.92 status=variable vmaxpu=1.5 vminpu=0.93 daily="RES_2_DU"
 
New "Load.BT_7746_M1" bus1="UC14588.1.4" phases=1 conn=delta model=2 kv=0.22 kw = 235.43496410257725 pf=0.92 status=variable vmaxpu=1.5 vminpu=0.93 daily="RES_2_DU" 
New "Load.BT_7746_M2" bus1="UC14588.1.4" phases=1 conn=delta model=3 kv=0.22 kw = 235.43496410257725 pf=0.92 status=variable vmaxpu=1.5 vminpu=0.93 daily="RES_2_DU"
 
New "Load.BT_7000_M1" bus1="UC15426.1.4" phases=1 conn=delta model=2 kv=0.22 kw = 1330.4813087657274 pf=0.92 status=variable vmaxpu=1.5 vminpu=0.93 daily="RES_2_DU" 
New "Load.BT_7000_M2" bus1="UC15426.1.4" phases=1 conn=delta model=3 kv=0.22 kw = 1330.4813087657274 pf=0.92 status=variable vmaxpu=1.5 vminpu=0.93 daily="RES_2_DU"
 
New "Load.BT_874_M1" bus1="UC12653.1.4" phases=1 conn=delta model=2 kv=0.22 kw = 5168.29034216865 pf=0.92 status=variable vmaxpu=1.5 vminpu=0.93 daily="COM_5_DU" 
New "Load.BT_874_M2" bus1="UC12653.1.4" phases=1 conn=delta model=3 kv=0.22 kw = 5168.29034216865 pf=0.92 status=variable vmaxpu=1.5 vminpu=0.93 daily="COM_5_DU"
 
New "Load.BT_7960_M1" bus1="UC15423.1.2.3.4" phases=3 conn=delta model=2 kv=0.38 kw = 289.1014086193586 pf=0.92 status=variable vmaxpu=1.5 vminpu=0.93 daily="COM_1_DU" 
New "Load.BT_7960_M2" bus1="UC15423.1.2.3.4" phases=3 conn=delta model=3 kv=0.38 kw = 289.1014086193586 pf=0.92 status=variable vmaxpu=1.5 vminpu=0.93 daily="COM_1_DU"
 
New "Load.BT_61_M1" bus1="UC16056.1.4" phases=1 conn=delta model=2 kv=0.22 kw = 0.0 pf=0.92 status=variable vmaxpu=1.5 vminpu=0.93 daily="RES_7_DU" 
New "Load.BT_61_M2" bus1="UC16056.1.4" phases=1 conn=delta model=3 kv=0.22 kw = 0.0 pf=0.92 status=variable vmaxpu=1.5 vminpu=0.93 daily="RES_7_DU"
 
New "Load.BT_8301_M1" bus1="UC20120.1.2.4" phases=2 conn=delta model=2 kv=0.38 kw = 0.0 pf=0.92 status=variable vmaxpu=1.5 vminpu=0.93 daily="RES_3_DU" 
New "Load.BT_8301_M2" bus1="UC20120.1.2.4" phases=2 conn=delta model=3 kv=0.38 kw = 0.0 pf=0.92 status=variable vmaxpu=1.5 vminpu=0.93 daily="RES_3_DU"
 
New "Load.BT_7633_M1" bus1="UC20123.2.4" phases=1 conn=delta model=2 kv=0.22 kw = 0.0 pf=0.92 status=variable vmaxpu=1.5 vminpu=0.93 daily="RES_3_DU" 
New "Load.BT_7633_M2" bus1="UC20123.2.4" phases=1 conn=delta model=3 kv=0.22 kw = 0.0 pf=0.92 status=variable vmaxpu=1.5 vminpu=0.93 daily="RES_3_DU"
 
New "Load.BT_2683_M1" bus1="UC20122.3.4" phases=1 conn=delta model=2 kv=0.22 kw = 0.0 pf=0.92 status=variable vmaxpu=1.5 vminpu=0.93 daily="RES_7_DU" 
New "Load.BT_2683_M2" bus1="UC20122.3.4" phases=1 conn=delta model=3 kv=0.22 kw = 0.0 pf=0.92 status=variable vmaxpu=1.5 vminpu=0.93 daily="RES_7_DU"
 
New "Load.BT_8675_M1" bus1="UC16051.1.4" phases=1 conn=delta model=2 kv=0.22 kw = 0.0 pf=0.92 status=variable vmaxpu=1.5 vminpu=0.93 daily="COM_5_DU" 
New "Load.BT_8675_M2" bus1="UC16051.1.4" phases=1 conn=delta model=3 kv=0.22 kw = 0.0 pf=0.92 status=variable vmaxpu=1.5 vminpu=0.93 daily="COM_5_DU"
 
New "Load.BT_6508_M1" bus1="UC16063.2.4" phases=1 conn=delta model=2 kv=0.22 kw = 0.0 pf=0.92 status=variable vmaxpu=1.5 vminpu=0.93 daily="RES_3_DU" 
New "Load.BT_6508_M2" bus1="UC16063.2.4" phases=1 conn=delta model=3 kv=0.22 kw = 0.0 pf=0.92 status=variable vmaxpu=1.5 vminpu=0.93 daily="RES_3_DU"
 
New "Load.BT_7819_M1" bus1="UC16066.2.4" phases=1 conn=delta model=2 kv=0.22 kw = 0.0 pf=0.92 status=variable vmaxpu=1.5 vminpu=0.93 daily="RES_7_DU" 
New "Load.BT_7819_M2" bus1="UC16066.2.4" phases=1 conn=delta model=3 kv=0.22 kw = 0.0 pf=0.92 status=variable vmaxpu=1.5 vminpu=0.93 daily="RES_7_DU"
 
New "Load.BT_835_M1" bus1="UC16065.3.4" phases=1 conn=delta model=2 kv=0.22 kw = 0.0 pf=0.92 status=variable vmaxpu=1.5 vminpu=0.93 daily="RES_3_DU" 
New "Load.BT_835_M2" bus1="UC16065.3.4" phases=1 conn=delta model=3 kv=0.22 kw = 0.0 pf=0.92 status=variable vmaxpu=1.5 vminpu=0.93 daily="RES_3_DU"
 
New "Load.BT_8015_M1" bus1="UC20075.1.2.3.4" phases=3 conn=delta model=2 kv=0.38 kw = 229.9597323792615 pf=0.92 status=variable vmaxpu=1.5 vminpu=0.93 daily="RES_2_DU" 
New "Load.BT_8015_M2" bus1="UC20075.1.2.3.4" phases=3 conn=delta model=3 kv=0.38 kw = 229.9597323792615 pf=0.92 status=variable vmaxpu=1.5 vminpu=0.93 daily="RES_2_DU"
 
New "Load.BT_71_M1" bus1="UC2604.2.4" phases=1 conn=delta model=2 kv=0.22 kw = 448.96900131189153 pf=0.92 status=variable vmaxpu=1.5 vminpu=0.93 daily="RES_2_DU" 
New "Load.BT_71_M2" bus1="UC2604.2.4" phases=1 conn=delta model=3 kv=0.22 kw = 448.96900131189153 pf=0.92 status=variable vmaxpu=1.5 vminpu=0.93 daily="RES_2_DU"
 
New "Load.BT_8314_M1" bus1="UC15743.1.2.3.4" phases=3 conn=delta model=2 kv=0.38 kw = 101.27756352907468 pf=0.92 status=variable vmaxpu=1.5 vminpu=0.93 daily="COM_1_DU" 
New "Load.BT_8314_M2" bus1="UC15743.1.2.3.4" phases=3 conn=delta model=3 kv=0.38 kw = 101.27756352907468 pf=0.92 status=variable vmaxpu=1.5 vminpu=0.93 daily="COM_1_DU"
 
New "Load.BT_814_M1" bus1="UC20076.1.4" phases=1 conn=delta model=2 kv=0.22 kw = 213.53403720931428 pf=0.92 status=variable vmaxpu=1.5 vminpu=0.93 daily="RES_2_DU" 
New "Load.BT_814_M2" bus1="UC20076.1.4" phases=1 conn=delta model=3 kv=0.22 kw = 213.53403720931428 pf=0.92 status=variable vmaxpu=1.5 vminpu=0.93 daily="RES_2_DU"
 
New "Load.BT_8070_M1" bus1="UC20074.2.3.4" phases=2 conn=delta model=2 kv=0.38 kw = 1166.2243570662547 pf=0.92 status=variable vmaxpu=1.5 vminpu=0.93 daily="RES_2_DU" 
New "Load.BT_8070_M2" bus1="UC20074.2.3.4" phases=2 conn=delta model=3 kv=0.38 kw = 1166.2243570662547 pf=0.92 status=variable vmaxpu=1.5 vminpu=0.93 daily="RES_2_DU"
 
New "Load.BT_2848_M1" bus1="UC6699.2.4" phases=1 conn=delta model=2 kv=0.22 kw = 1598.7676632081989 pf=0.92 status=variable vmaxpu=1.5 vminpu=0.93 daily="RES_2_DU" 
New "Load.BT_2848_M2" bus1="UC6699.2.4" phases=1 conn=delta model=3 kv=0.22 kw = 1598.7676632081989 pf=0.92 status=variable vmaxpu=1.5 vminpu=0.93 daily="RES_2_DU"
 
New "Load.BT_1090_M1" bus1="UC15410.1.2.3.4" phases=3 conn=delta model=2 kv=0.38 kw = 283.57717788140906 pf=0.92 status=variable vmaxpu=1.5 vminpu=0.93 daily="COM_1_DU" 
New "Load.BT_1090_M2" bus1="UC15410.1.2.3.4" phases=3 conn=delta model=3 kv=0.38 kw = 283.57717788140906 pf=0.92 status=variable vmaxpu=1.5 vminpu=0.93 daily="COM_1_DU"
 
New "Load.BT_1090_M1" bus1="UC15410.3.4" phases=1 conn=delta model=2 kv=0.22 kw = 4933.004457978137 pf=0.92 status=variable vmaxpu=1.5 vminpu=0.93 daily="RES_8_DU" 
New "Load.BT_1090_M2" bus1="UC15410.3.4" phases=1 conn=delta model=3 kv=0.22 kw = 4933.004457978137 pf=0.92 status=variable vmaxpu=1.5 vminpu=0.93 daily="RES_8_DU"
 
New "Load.BT_7839_M1" bus1="UC15414.1.2.3.4" phases=3 conn=delta model=2 kv=0.38 kw = 15637.255808889131 pf=0.92 status=variable vmaxpu=1.5 vminpu=0.93 daily="COM_1_DU" 
New "Load.BT_7839_M2" bus1="UC15414.1.2.3.4" phases=3 conn=delta model=3 kv=0.38 kw = 15637.255808889131 pf=0.92 status=variable vmaxpu=1.5 vminpu=0.93 daily="COM_1_DU"
 
New "Load.BT_1339_M1" bus1="UC15420.2.3.4" phases=2 conn=delta model=2 kv=0.38 kw = 646.0773433512585 pf=0.92 status=variable vmaxpu=1.5 vminpu=0.93 daily="RES_2_DU" 
New "Load.BT_1339_M2" bus1="UC15420.2.3.4" phases=2 conn=delta model=3 kv=0.38 kw = 646.0773433512585 pf=0.92 status=variable vmaxpu=1.5 vminpu=0.93 daily="RES_2_DU"
 
New "Load.BT_7850_M1" bus1="UC13997.1.4" phases=1 conn=delta model=2 kv=0.22 kw = 872.982478896261 pf=0.92 status=variable vmaxpu=1.5 vminpu=0.93 daily="RES_13_DU" 
New "Load.BT_7850_M2" bus1="UC13997.1.4" phases=1 conn=delta model=3 kv=0.22 kw = 872.982478896261 pf=0.92 status=variable vmaxpu=1.5 vminpu=0.93 daily="RES_13_DU"
 
New "Load.BT_2647_M1" bus1="UC4659.1.2.3.4" phases=3 conn=delta model=2 kv=0.38 kw = 0.0 pf=0.92 status=variable vmaxpu=1.5 vminpu=0.93 daily="RES_3_DU" 
New "Load.BT_2647_M2" bus1="UC4659.1.2.3.4" phases=3 conn=delta model=3 kv=0.38 kw = 0.0 pf=0.92 status=variable vmaxpu=1.5 vminpu=0.93 daily="RES_3_DU"
 
New "Load.BT_3000_M1" bus1="UC3833.2.4" phases=1 conn=delta model=2 kv=0.22 kw = 0.0 pf=0.92 status=variable vmaxpu=1.5 vminpu=0.93 daily="COM_5_DU" 
New "Load.BT_3000_M2" bus1="UC3833.2.4" phases=1 conn=delta model=3 kv=0.22 kw = 0.0 pf=0.92 status=variable vmaxpu=1.5 vminpu=0.93 daily="COM_5_DU"
 
New "Load.BT_6968_M1" bus1="UC16049.1.4" phases=1 conn=delta model=2 kv=0.22 kw = 0.0 pf=0.92 status=variable vmaxpu=1.5 vminpu=0.93 daily="RES_7_DU" 
New "Load.BT_6968_M2" bus1="UC16049.1.4" phases=1 conn=delta model=3 kv=0.22 kw = 0.0 pf=0.92 status=variable vmaxpu=1.5 vminpu=0.93 daily="RES_7_DU"
 
New "Load.BT_8565_M1" bus1="UC20121.1.2.3.4" phases=3 conn=delta model=2 kv=0.38 kw = 0.0 pf=0.92 status=variable vmaxpu=1.5 vminpu=0.93 daily="RES_3_DU" 
New "Load.BT_8565_M2" bus1="UC20121.1.2.3.4" phases=3 conn=delta model=3 kv=0.38 kw = 0.0 pf=0.92 status=variable vmaxpu=1.5 vminpu=0.93 daily="RES_3_DU"
 
New "Load.BT_2851_M1" bus1="UC1952.2.4" phases=1 conn=delta model=2 kv=0.22 kw = 0.0 pf=0.92 status=variable vmaxpu=1.5 vminpu=0.93 daily="RES_3_DU" 
New "Load.BT_2851_M2" bus1="UC1952.2.4" phases=1 conn=delta model=3 kv=0.22 kw = 0.0 pf=0.92 status=variable vmaxpu=1.5 vminpu=0.93 daily="RES_3_DU"
 
New "Load.BT_1108_M1" bus1="UC16052.3.4" phases=1 conn=delta model=2 kv=0.22 kw = 0.0 pf=0.92 status=variable vmaxpu=1.5 vminpu=0.93 daily="RES_7_DU" 
New "Load.BT_1108_M2" bus1="UC16052.3.4" phases=1 conn=delta model=3 kv=0.22 kw = 0.0 pf=0.92 status=variable vmaxpu=1.5 vminpu=0.93 daily="RES_7_DU"
 
New "Load.BT_61_M1" bus1="UC16056.2.4" phases=1 conn=delta model=2 kv=0.22 kw = 0.0 pf=0.92 status=variable vmaxpu=1.5 vminpu=0.93 daily="RES_7_DU" 
New "Load.BT_61_M2" bus1="UC16056.2.4" phases=1 conn=delta model=3 kv=0.22 kw = 0.0 pf=0.92 status=variable vmaxpu=1.5 vminpu=0.93 daily="RES_7_DU"
 
New "Load.BT_7277_M1" bus1="UC16022.1.2.3.4" phases=3 conn=delta model=2 kv=0.38 kw = 0.0 pf=0.92 status=variable vmaxpu=1.5 vminpu=0.93 daily="RES_7_DU" 
New "Load.BT_7277_M2" bus1="UC16022.1.2.3.4" phases=3 conn=delta model=3 kv=0.38 kw = 0.0 pf=0.92 status=variable vmaxpu=1.5 vminpu=0.93 daily="RES_7_DU"
 
New "Load.BT_7621_M1" bus1="UC20113.1.4" phases=1 conn=delta model=2 kv=0.22 kw = 0.0 pf=0.92 status=variable vmaxpu=1.5 vminpu=0.93 daily="RES_3_DU" 
New "Load.BT_7621_M2" bus1="UC20113.1.4" phases=1 conn=delta model=3 kv=0.22 kw = 0.0 pf=0.92 status=variable vmaxpu=1.5 vminpu=0.93 daily="RES_3_DU"
 
New "Load.BT_7621_M1" bus1="UC20113.2.4" phases=1 conn=delta model=2 kv=0.22 kw = 0.0 pf=0.92 status=variable vmaxpu=1.5 vminpu=0.93 daily="RES_3_DU" 
New "Load.BT_7621_M2" bus1="UC20113.2.4" phases=1 conn=delta model=3 kv=0.22 kw = 0.0 pf=0.92 status=variable vmaxpu=1.5 vminpu=0.93 daily="RES_3_DU"
 
New "Load.BT_8077_M1" bus1="UC4766.2.3.4" phases=2 conn=delta model=2 kv=0.38 kw = 0.0 pf=0.92 status=variable vmaxpu=1.5 vminpu=0.93 daily="RES_3_DU" 
New "Load.BT_8077_M2" bus1="UC4766.2.3.4" phases=2 conn=delta model=3 kv=0.38 kw = 0.0 pf=0.92 status=variable vmaxpu=1.5 vminpu=0.93 daily="RES_3_DU"
 
New "Load.BT_8518_M1" bus1="UC20077.3.4" phases=1 conn=delta model=2 kv=0.22 kw = 0.0 pf=0.92 status=variable vmaxpu=1.5 vminpu=0.93 daily="RES_3_DU" 
New "Load.BT_8518_M2" bus1="UC20077.3.4" phases=1 conn=delta model=3 kv=0.22 kw = 0.0 pf=0.92 status=variable vmaxpu=1.5 vminpu=0.93 daily="RES_3_DU"
 
New "Load.BT_8518_M1" bus1="UC20077.2.4" phases=1 conn=delta model=2 kv=0.22 kw = 0.0 pf=0.92 status=variable vmaxpu=1.5 vminpu=0.93 daily="RES_7_DU" 
New "Load.BT_8518_M2" bus1="UC20077.2.4" phases=1 conn=delta model=3 kv=0.22 kw = 0.0 pf=0.92 status=variable vmaxpu=1.5 vminpu=0.93 daily="RES_7_DU"
 
New "Load.BT_8518_M1" bus1="UC20077.1.4" phases=1 conn=delta model=2 kv=0.22 kw = 0.0 pf=0.92 status=variable vmaxpu=1.5 vminpu=0.93 daily="RES_3_DU" 
New "Load.BT_8518_M2" bus1="UC20077.1.4" phases=1 conn=delta model=3 kv=0.22 kw = 0.0 pf=0.92 status=variable vmaxpu=1.5 vminpu=0.93 daily="RES_3_DU"
 
New "Load.BT_8018_M1" bus1="UC20072.1.2.3.4" phases=3 conn=delta model=2 kv=0.38 kw = 208.0588054859985 pf=0.92 status=variable vmaxpu=1.5 vminpu=0.93 daily="RES_2_DU" 
New "Load.BT_8018_M2" bus1="UC20072.1.2.3.4" phases=3 conn=delta model=3 kv=0.38 kw = 208.0588054859985 pf=0.92 status=variable vmaxpu=1.5 vminpu=0.93 daily="RES_2_DU"
 
New "Load.BT_2811_M1" bus1="UC4902.1.2.4" phases=2 conn=delta model=2 kv=0.38 kw = 43.801853786526 pf=0.92 status=variable vmaxpu=1.5 vminpu=0.93 daily="RES_2_DU" 
New "Load.BT_2811_M2" bus1="UC4902.1.2.4" phases=2 conn=delta model=3 kv=0.38 kw = 43.801853786526 pf=0.92 status=variable vmaxpu=1.5 vminpu=0.93 daily="RES_2_DU"
 
New "Load.BT_945_M1" bus1="UC5720.3.4" phases=1 conn=delta model=2 kv=0.22 kw = 366.84052546215526 pf=0.92 status=variable vmaxpu=1.5 vminpu=0.93 daily="RES_2_DU" 
New "Load.BT_945_M2" bus1="UC5720.3.4" phases=1 conn=delta model=3 kv=0.22 kw = 366.84052546215526 pf=0.92 status=variable vmaxpu=1.5 vminpu=0.93 daily="RES_2_DU"
 
New "Load.BT_8517_M1" bus1="UC20014.1.2.3.4" phases=3 conn=delta model=2 kv=0.38 kw = 1023.8683322600453 pf=0.92 status=variable vmaxpu=1.5 vminpu=0.93 daily="RES_2_DU" 
New "Load.BT_8517_M2" bus1="UC20014.1.2.3.4" phases=3 conn=delta model=3 kv=0.38 kw = 1023.8683322600453 pf=0.92 status=variable vmaxpu=1.5 vminpu=0.93 daily="RES_2_DU"
 
New "Load.BT_1925_M1" bus1="UC3106.1.4" phases=1 conn=delta model=2 kv=0.22 kw = 1074.8363594464608 pf=0.92 status=variable vmaxpu=1.5 vminpu=0.93 daily="RES_1_DU" 
New "Load.BT_1925_M2" bus1="UC3106.1.4" phases=1 conn=delta model=3 kv=0.22 kw = 1074.8363594464608 pf=0.92 status=variable vmaxpu=1.5 vminpu=0.93 daily="RES_1_DU"
 
New "Load.BT_663_M1" bus1="UC14776.1.2.4" phases=2 conn=delta model=2 kv=0.38 kw = 624.2380733882966 pf=0.92 status=variable vmaxpu=1.5 vminpu=0.93 daily="COM_1_DU" 
New "Load.BT_663_M2" bus1="UC14776.1.2.4" phases=2 conn=delta model=3 kv=0.38 kw = 624.2380733882966 pf=0.92 status=variable vmaxpu=1.5 vminpu=0.93 daily="COM_1_DU"
 
New "Load.BT_663_M1" bus1="UC14776.1.4" phases=1 conn=delta model=2 kv=0.22 kw = 794.444265677819 pf=0.92 status=variable vmaxpu=1.5 vminpu=0.93 daily="RES_1_DU" 
New "Load.BT_663_M2" bus1="UC14776.1.4" phases=1 conn=delta model=3 kv=0.22 kw = 794.444265677819 pf=0.92 status=variable vmaxpu=1.5 vminpu=0.93 daily="RES_1_DU"
 
New "Load.BT_459_M1" bus1="UC9463.3.4" phases=1 conn=delta model=2 kv=0.22 kw = 815.8095267740467 pf=0.92 status=variable vmaxpu=1.5 vminpu=0.93 daily="RES_2_DU" 
New "Load.BT_459_M2" bus1="UC9463.3.4" phases=1 conn=delta model=3 kv=0.22 kw = 815.8095267740467 pf=0.92 status=variable vmaxpu=1.5 vminpu=0.93 daily="RES_2_DU"
 
New "Load.BT_748_M1" bus1="UC3917.3.4" phases=1 conn=delta model=2 kv=0.22 kw = 1045.7692591533084 pf=0.92 status=variable vmaxpu=1.5 vminpu=0.93 daily="RES_2_DU" 
New "Load.BT_748_M2" bus1="UC3917.3.4" phases=1 conn=delta model=3 kv=0.22 kw = 1045.7692591533084 pf=0.92 status=variable vmaxpu=1.5 vminpu=0.93 daily="RES_2_DU"
 
New "Load.BT_7620_M1" bus1="UC20017.1.2.3.4" phases=3 conn=delta model=2 kv=0.38 kw = 940.7794876598616 pf=0.92 status=variable vmaxpu=1.5 vminpu=0.93 daily="RES_10_DU" 
New "Load.BT_7620_M2" bus1="UC20017.1.2.3.4" phases=3 conn=delta model=3 kv=0.38 kw = 940.7794876598616 pf=0.92 status=variable vmaxpu=1.5 vminpu=0.93 daily="RES_10_DU"
 
New "Load.BT_2952_M1" bus1="UC20157.3.4" phases=1 conn=delta model=2 kv=0.22 kw = 0.0 pf=0.92 status=variable vmaxpu=1.5 vminpu=0.93 daily="RES_7_DU" 
New "Load.BT_2952_M2" bus1="UC20157.3.4" phases=1 conn=delta model=3 kv=0.22 kw = 0.0 pf=0.92 status=variable vmaxpu=1.5 vminpu=0.93 daily="RES_7_DU"
 
New "Load.BT_1937_M1" bus1="UC20159.1.4" phases=1 conn=delta model=2 kv=0.22 kw = 0.0 pf=0.92 status=variable vmaxpu=1.5 vminpu=0.93 daily="RES_7_DU" 
New "Load.BT_1937_M2" bus1="UC20159.1.4" phases=1 conn=delta model=3 kv=0.22 kw = 0.0 pf=0.92 status=variable vmaxpu=1.5 vminpu=0.93 daily="RES_7_DU"
 
New "Load.BT_7292_M1" bus1="UC20158.2.3.4" phases=2 conn=delta model=2 kv=0.38 kw = 0.0 pf=0.92 status=variable vmaxpu=1.5 vminpu=0.93 daily="RES_7_DU" 
New "Load.BT_7292_M2" bus1="UC20158.2.3.4" phases=2 conn=delta model=3 kv=0.38 kw = 0.0 pf=0.92 status=variable vmaxpu=1.5 vminpu=0.93 daily="RES_7_DU"
 
New "Load.BT_8649_M1" bus1="UC16131.1.2.3.4" phases=3 conn=delta model=2 kv=0.38 kw = 0.0 pf=0.92 status=variable vmaxpu=1.5 vminpu=0.93 daily="COM_5_DU" 
New "Load.BT_8649_M2" bus1="UC16131.1.2.3.4" phases=3 conn=delta model=3 kv=0.38 kw = 0.0 pf=0.92 status=variable vmaxpu=1.5 vminpu=0.93 daily="COM_5_DU"
 
New "Load.BT_7507_M1" bus1="UC16308.2.4" phases=1 conn=delta model=2 kv=0.22 kw = 0.0 pf=0.92 status=variable vmaxpu=1.5 vminpu=0.93 daily="RES_7_DU" 
New "Load.BT_7507_M2" bus1="UC16308.2.4" phases=1 conn=delta model=3 kv=0.22 kw = 0.0 pf=0.92 status=variable vmaxpu=1.5 vminpu=0.93 daily="RES_7_DU"
 
New "Load.BT_2275_M1" bus1="UC20160.2.4" phases=1 conn=delta model=2 kv=0.22 kw = 0.0 pf=0.92 status=variable vmaxpu=1.5 vminpu=0.93 daily="RES_7_DU" 
New "Load.BT_2275_M2" bus1="UC20160.2.4" phases=1 conn=delta model=3 kv=0.22 kw = 0.0 pf=0.92 status=variable vmaxpu=1.5 vminpu=0.93 daily="RES_7_DU"
 
New "Load.BT_1838_M1" bus1="UC11113.3.4" phases=1 conn=delta model=2 kv=0.22 kw = 0.0 pf=0.92 status=variable vmaxpu=1.5 vminpu=0.93 daily="COM_5_DU" 
New "Load.BT_1838_M2" bus1="UC11113.3.4" phases=1 conn=delta model=3 kv=0.22 kw = 0.0 pf=0.92 status=variable vmaxpu=1.5 vminpu=0.93 daily="COM_5_DU"
 
New "Load.BT_2861_M1" bus1="UC1579.1.4" phases=1 conn=delta model=2 kv=0.22 kw = 0.0 pf=0.92 status=variable vmaxpu=1.5 vminpu=0.93 daily="RES_3_DU" 
New "Load.BT_2861_M2" bus1="UC1579.1.4" phases=1 conn=delta model=3 kv=0.22 kw = 0.0 pf=0.92 status=variable vmaxpu=1.5 vminpu=0.93 daily="RES_3_DU"
 
New "Load.BT_7961_M1" bus1="UC15997.2.3.4" phases=2 conn=delta model=2 kv=0.38 kw = 0.0 pf=0.92 status=variable vmaxpu=1.5 vminpu=0.93 daily="RES_3_DU" 
New "Load.BT_7961_M2" bus1="UC15997.2.3.4" phases=2 conn=delta model=3 kv=0.38 kw = 0.0 pf=0.92 status=variable vmaxpu=1.5 vminpu=0.93 daily="RES_3_DU"
 
New "Load.BT_2904_M1" bus1="UC20108.3.1.4" phases=2 conn=delta model=2 kv=0.38 kw = 0.0 pf=0.92 status=variable vmaxpu=1.5 vminpu=0.93 daily="RES_3_DU" 
New "Load.BT_2904_M2" bus1="UC20108.3.1.4" phases=2 conn=delta model=3 kv=0.38 kw = 0.0 pf=0.92 status=variable vmaxpu=1.5 vminpu=0.93 daily="RES_3_DU"
 
New "Load.BT_8511_M1" bus1="UC20109.1.2.3.4" phases=3 conn=delta model=2 kv=0.38 kw = 0.0 pf=0.92 status=variable vmaxpu=1.5 vminpu=0.93 daily="RES_3_DU" 
New "Load.BT_8511_M2" bus1="UC20109.1.2.3.4" phases=3 conn=delta model=3 kv=0.38 kw = 0.0 pf=0.92 status=variable vmaxpu=1.5 vminpu=0.93 daily="RES_3_DU"
 
New "Load.BT_463_M1" bus1="UC16004.3.4" phases=1 conn=delta model=2 kv=0.22 kw = 0.0 pf=0.92 status=variable vmaxpu=1.5 vminpu=0.93 daily="RES_7_DU" 
New "Load.BT_463_M2" bus1="UC16004.3.4" phases=1 conn=delta model=3 kv=0.22 kw = 0.0 pf=0.92 status=variable vmaxpu=1.5 vminpu=0.93 daily="RES_7_DU"
 
New "Load.BT_6668_M1" bus1="UC9379.1.4" phases=1 conn=delta model=2 kv=0.22 kw = 470.8699282051545 pf=0.92 status=variable vmaxpu=1.5 vminpu=0.93 daily="RES_2_DU" 
New "Load.BT_6668_M2" bus1="UC9379.1.4" phases=1 conn=delta model=3 kv=0.22 kw = 470.8699282051545 pf=0.92 status=variable vmaxpu=1.5 vminpu=0.93 daily="RES_2_DU"
 
New "Load.BT_2037_M1" bus1="UC4021.3.4" phases=1 conn=delta model=2 kv=0.22 kw = 706.3048923077317 pf=0.92 status=variable vmaxpu=1.5 vminpu=0.93 daily="RES_2_DU" 
New "Load.BT_2037_M2" bus1="UC4021.3.4" phases=1 conn=delta model=3 kv=0.22 kw = 706.3048923077317 pf=0.92 status=variable vmaxpu=1.5 vminpu=0.93 daily="RES_2_DU"
 
New "Load.BT_1224_M1" bus1="UC1788.1.4" phases=1 conn=delta model=2 kv=0.22 kw = 312.08820822899776 pf=0.92 status=variable vmaxpu=1.5 vminpu=0.93 daily="RES_2_DU" 
New "Load.BT_1224_M2" bus1="UC1788.1.4" phases=1 conn=delta model=3 kv=0.22 kw = 312.08820822899776 pf=0.92 status=variable vmaxpu=1.5 vminpu=0.93 daily="RES_2_DU"
 
New "Load.BT_969_M1" bus1="UC15681.1.4" phases=1 conn=delta model=2 kv=0.22 kw = 1133.3729667263601 pf=0.92 status=variable vmaxpu=1.5 vminpu=0.93 daily="RES_2_DU" 
New "Load.BT_969_M2" bus1="UC15681.1.4" phases=1 conn=delta model=3 kv=0.22 kw = 1133.3729667263601 pf=0.92 status=variable vmaxpu=1.5 vminpu=0.93 daily="RES_2_DU"
 
New "Load.BT_969_M1" bus1="UC15681.1.4" phases=1 conn=delta model=2 kv=0.22 kw = 1363.332699105622 pf=0.92 status=variable vmaxpu=1.5 vminpu=0.93 daily="RES_2_DU" 
New "Load.BT_969_M2" bus1="UC15681.1.4" phases=1 conn=delta model=3 kv=0.22 kw = 1363.332699105622 pf=0.92 status=variable vmaxpu=1.5 vminpu=0.93 daily="RES_2_DU"
 
New "Load.BT_8360_M1" bus1="UC15017.1.2.3.4" phases=3 conn=delta model=2 kv=0.38 kw = 173.68987974785483 pf=0.92 status=variable vmaxpu=1.5 vminpu=0.93 daily="IND_13_DU" 
...